data_bigQuasi\(2)
_audit_creation_date              2021-01-19
_audit_creation_method            'Materials Studio'
_symmetry_space_group_name_H-M    'P1'
_symmetry_Int_Tables_number       1
_symmetry_cell_setting            triclinic
loop_
_symmetry_equiv_pos_as_xyz
  x,y,z
_cell_length_a                    49.4000
_cell_length_b                    49.4000
_cell_length_c                    20.0000
_cell_angle_alpha                 90.0000
_cell_angle_beta                  90.0000
_cell_angle_gamma                 90.0000
loop_
_atom_site_label
_atom_site_type_symbol
_atom_site_fract_x
_atom_site_fract_y
_atom_site_fract_z
_atom_site_U_iso_or_equiv
_atom_site_adp_type
_atom_site_occupancy
O1     O     0.88722   0.96062   0.00000   0.00000  Uiso   1.00
O2     O     0.78713   0.59801   0.00000   0.00000  Uiso   1.00
O3     O     0.77021   0.52535   0.00000   0.00000  Uiso   1.00
O4     O     0.76722   0.46428   0.00000   0.00000  Uiso   1.00
O5     O     0.18658   0.77564   0.00000   0.00000  Uiso   1.00
O6     O     0.68024   0.72439   0.00000   0.00000  Uiso   1.00
O7     O     0.84492   0.59658   0.00000   0.00000  Uiso   1.00
O8     O     0.87879   0.66556   0.00000   0.00000  Uiso   1.00
O9     O     0.96031   0.73204   0.00000   0.00000  Uiso   1.00
O10    O     0.90513   0.76590   0.00000   0.00000  Uiso   1.00
O11    O     0.87377   0.81356   0.00000   0.00000  Uiso   1.00
O12    O     0.92519   0.84618   0.00000   0.00000  Uiso   1.00
O13    O     0.96031   0.89008   0.00000   0.00000  Uiso   1.00
O14    O     0.98164   0.83364   0.00000   0.00000  Uiso   1.00
O15    O     0.98665   0.94401   0.00000   0.00000  Uiso   1.00
O16    O     0.99418   0.99543   0.00000   0.00000  Uiso   1.00
O17    O     0.00081   0.99919   0.00000   0.00000  Uiso   1.00
O18    O     0.99578   0.00582   0.00000   0.00000  Uiso   1.00
O19    O     0.00332   0.00706   0.00000   0.00000  Uiso   1.00
O20    O     0.89885   0.02589   0.00000   0.00000  Uiso   1.00
O21    O     0.83990   0.04219   0.00000   0.00000  Uiso   1.00
O22    O     0.88128   0.07983   0.00000   0.00000  Uiso   1.00
O23    O     0.92143   0.11996   0.00000   0.00000  Uiso   1.00
O24    O     0.97662   0.09487   0.00000   0.00000  Uiso   1.00
O25    O     0.96658   0.15633   0.00000   0.00000  Uiso   1.00
Ba26   Ba    0.05221   0.68062   0.00000   0.00000  Uiso   1.00
Ba27   Ba    0.54766   0.28678   0.00000   0.00000  Uiso   1.00
Ba28   Ba    0.32064   0.68187   0.00000   0.00000  Uiso   1.00
Ba29   Ba    0.41595   0.78723   0.00000   0.00000  Uiso   1.00
Ba30   Ba    0.28175   0.81105   0.00000   0.00000  Uiso   1.00
Ba31   Ba    0.18893   0.71950   0.00000   0.00000  Uiso   1.00
Ba32   Ba    0.09237   0.81482   0.00000   0.00000  Uiso   1.00
Ba33   Ba    0.05473   0.95029   0.00000   0.00000  Uiso   1.00
Ba34   Ba    0.18518   0.91769   0.00000   0.00000  Uiso   1.00
Ba35   Ba    0.31562   0.95028   0.00000   0.00000  Uiso   1.00
Ba36   Ba    0.45108   0.91140   0.00000   0.00000  Uiso   1.00
Ba37   Ba    0.58528   0.95029   0.00000   0.00000  Uiso   1.00
Ba38   Ba    0.71448   0.91391   0.00000   0.00000  Uiso   1.00
Ba39   Ba    0.68438   0.78097   0.00000   0.00000  Uiso   1.00
Ba40   Ba    0.81357   0.81608   0.00000   0.00000  Uiso   1.00
Ba41   Ba    0.78095   0.68564   0.00000   0.00000  Uiso   1.00
Ba42   Ba    0.91267   0.71574   0.00000   0.00000  Uiso   1.00
Ba43   Ba    0.95529   0.78221   0.00000   0.00000  Uiso   1.00
Ba44   Ba    0.91265   0.91265   0.00000   0.00000  Uiso   1.00
Ba45   Ba    0.78220   0.95279   0.00000   0.00000  Uiso   1.00
Ba46   Ba    0.95027   0.58154   0.00000   0.00000  Uiso   1.00
Ba47   Ba    0.81732   0.54893   0.00000   0.00000  Uiso   1.00
Ba48   Ba    0.91389   0.45234   0.00000   0.00000  Uiso   1.00
Ba49   Ba    0.95153   0.31815   0.00000   0.00000  Uiso   1.00
Ba50   Ba    0.91767   0.18519   0.00000   0.00000  Uiso   1.00
Ba51   Ba    0.81481   0.28175   0.00000   0.00000  Uiso   1.00
Ba52   Ba    0.78723   0.41973   0.00000   0.00000  Uiso   1.00
Ba53   Ba    0.71699   0.45359   0.00000   0.00000  Uiso   1.00
Ba54   Ba    0.67935   0.59156   0.00000   0.00000  Uiso   1.00
Ba55   Ba    0.58404   0.68187   0.00000   0.00000  Uiso   1.00
Ba56   Ba    0.45106   0.71697   0.00000   0.00000  Uiso   1.00
Ba57   Ba    0.54890   0.81733   0.00000   0.00000  Uiso   1.00
Ba58   Ba    0.54640   0.54391   0.00000   0.00000  Uiso   1.00
Ba59   Ba    0.59030   0.41598   0.00000   0.00000  Uiso   1.00
Ba60   Ba    0.45610   0.45108   0.00000   0.00000  Uiso   1.00
Ba61   Ba    0.41471   0.59282   0.00000   0.00000  Uiso   1.00
Ba62   Ba    0.28553   0.55144   0.00000   0.00000  Uiso   1.00
Ba63   Ba    0.21654   0.58780   0.00000   0.00000  Uiso   1.00
Ba64   Ba    0.09111   0.55144   0.00000   0.00000  Uiso   1.00
Ba65   Ba    0.05726   0.41347   0.00000   0.00000  Uiso   1.00
Ba66   Ba    0.09111   0.28805   0.00000   0.00000  Uiso   1.00
Ba67   Ba    0.05474   0.21529   0.00000   0.00000  Uiso   1.00
Ba68   Ba    0.09362   0.08987   0.00000   0.00000  Uiso   1.00
Ba69   Ba    0.18393   0.18641   0.00000   0.00000  Uiso   1.00
Ba70   Ba    0.22281   0.31312   0.00000   0.00000  Uiso   1.00
Ba71   Ba    0.31563   0.22155   0.00000   0.00000  Uiso   1.00
Ba72   Ba    0.18768   0.45234   0.00000   0.00000  Uiso   1.00
Ba73   Ba    0.41471   0.31437   0.00000   0.00000  Uiso   1.00
Ba74   Ba    0.32315   0.41847   0.00000   0.00000  Uiso   1.00
Ba75   Ba    0.59156   0.20901   0.00000   0.00000  Uiso   1.00
Ba76   Ba    0.71950   0.18393   0.00000   0.00000  Uiso   1.00
Ba77   Ba    0.95406   0.04469   0.00000   0.00000  Uiso   1.00
Ba78   Ba    0.82112   0.09363   0.00000   0.00000  Uiso   1.00
Ba79   Ba    0.28803   0.09111   0.00000   0.00000  Uiso   1.00
Ba80   Ba    0.55018   0.08609   0.00000   0.00000  Uiso   1.00
Ba81   Ba    0.45358   0.18393   0.00000   0.00000  Uiso   1.00
Ba82   Ba    0.68607   0.31895   0.00000   0.00000  Uiso   1.00
Ba83   Ba    0.68105   0.05242   0.00000   0.00000  Uiso   1.00
Ba84   Ba    0.41702   0.05242   0.00000   0.00000  Uiso   1.00
Ba85   Ba    0.21963   0.05493   0.00000   0.00000  Uiso   1.00
O86    O     0.83066   0.98153   0.00000   0.00000  Uiso   1.00
O87    O     0.73385   0.96393   0.00000   0.00000  Uiso   1.00
O88    O     0.61190   0.90232   0.00000   0.00000  Uiso   1.00
O89    O     0.65967   0.93753   0.00000   0.00000  Uiso   1.00
O90    O     0.66973   0.88221   0.00000   0.00000  Uiso   1.00
O91    O     0.70745   0.82940   0.00000   0.00000  Uiso   1.00
O92    O     0.76277   0.84700   0.00000   0.00000  Uiso   1.00
O93    O     0.76528   0.90735   0.00000   0.00000  Uiso   1.00
O94    O     0.81306   0.87089   0.00000   0.00000  Uiso   1.00
O95    O     0.87215   0.87466   0.00000   0.00000  Uiso   1.00
O96    O     0.84197   0.92370   0.00000   0.00000  Uiso   1.00
O97    O     0.84826   0.76528   0.00000   0.00000  Uiso   1.00
O98    O     0.78917   0.74139   0.00000   0.00000  Uiso   1.00
O99    O     0.76151   0.79294   0.00000   0.00000  Uiso   1.00
O100   O     0.73385   0.74642   0.00000   0.00000  Uiso   1.00
O101   O     0.72631   0.68859   0.00000   0.00000  Uiso   1.00
O102   O     0.68607   0.64584   0.00000   0.00000  Uiso   1.00
O103   O     0.63453   0.68356   0.00000   0.00000  Uiso   1.00
O104   O     0.38308   0.83443   0.00000   0.00000  Uiso   1.00
O105   O     0.32273   0.84700   0.00000   0.00000  Uiso   1.00
O106   O     0.34033   0.90484   0.00000   0.00000  Uiso   1.00
O107   O     0.40068   0.89352   0.00000   0.00000  Uiso   1.00
O108   O     0.90107   0.60938   0.00000   0.00000  Uiso   1.00
O109   O     0.81809   0.64836   0.00000   0.00000  Uiso   1.00
O110   O     0.93878   0.65841   0.00000   0.00000  Uiso   1.00
O111   O     0.99033   0.67727   0.00000   0.00000  Uiso   1.00
O112   O     0.98404   0.62070   0.00000   0.00000  Uiso   1.00
O113   O     0.97776   0.53395   0.00000   0.00000  Uiso   1.00
O114   O     0.96267   0.47737   0.00000   0.00000  Uiso   1.00
O115   O     0.92370   0.52012   0.00000   0.00000  Uiso   1.00
O116   O     0.87718   0.55280   0.00000   0.00000  Uiso   1.00
O117   O     0.87215   0.48994   0.00000   0.00000  Uiso   1.00
O118   O     0.81683   0.49497   0.00000   0.00000  Uiso   1.00
O119   O     0.83946   0.43965   0.00000   0.00000  Uiso   1.00
O120   O     0.88849   0.40445   0.00000   0.00000  Uiso   1.00
O121   O     0.83066   0.38433   0.00000   0.00000  Uiso   1.00
O122   O     0.84449   0.32524   0.00000   0.00000  Uiso   1.00
O123   O     0.89981   0.34536   0.00000   0.00000  Uiso   1.00
O124   O     0.94633   0.37930   0.00000   0.00000  Uiso   1.00
O125   O     0.89855   0.29255   0.00000   0.00000  Uiso   1.00
O126   O     0.93250   0.23849   0.00000   0.00000  Uiso   1.00
O127   O     0.87215   0.24729   0.00000   0.00000  Uiso   1.00
O128   O     0.81683   0.22592   0.00000   0.00000  Uiso   1.00
O129   O     0.37805   0.01470   0.00000   0.00000  Uiso   1.00
O130   O     0.73134   0.02853   0.00000   0.00000  Uiso   1.00
O131   O     0.77157   0.18946   0.00000   0.00000  Uiso   1.00
O132   O     0.76905   0.24603   0.00000   0.00000  Uiso   1.00
O133   O     0.70870   0.24729   0.00000   0.00000  Uiso   1.00
O134   O     0.73888   0.29632   0.00000   0.00000  Uiso   1.00
O135   O     0.79043   0.33278   0.00000   0.00000  Uiso   1.00
O136   O     0.73511   0.35039   0.00000   0.00000  Uiso   1.00
O137   O     0.73511   0.40822   0.00000   0.00000  Uiso   1.00
O138   O     0.68482   0.37302   0.00000   0.00000  Uiso   1.00
O139   O     0.62824   0.37930   0.00000   0.00000  Uiso   1.00
O140   O     0.66093   0.42582   0.00000   0.00000  Uiso   1.00
O141   O     0.61315   0.46228   0.00000   0.00000  Uiso   1.00
O142   O     0.66973   0.48114   0.00000   0.00000  Uiso   1.00
O143   O     0.66093   0.54023   0.00000   0.00000  Uiso   1.00
O144   O     0.60058   0.52263   0.00000   0.00000  Uiso   1.00
O145   O     0.61692   0.57669   0.00000   0.00000  Uiso   1.00
O146   O     0.71499   0.52012   0.00000   0.00000  Uiso   1.00
O147   O     0.97776   0.42708   0.00000   0.00000  Uiso   1.00
O148   O     0.62824   0.31895   0.00000   0.00000  Uiso   1.00
O149   O     0.57669   0.35039   0.00000   0.00000  Uiso   1.00
O150   O     0.54023   0.39313   0.00000   0.00000  Uiso   1.00
O151   O     0.52012   0.33656   0.00000   0.00000  Uiso   1.00
O152   O     0.45977   0.34913   0.00000   0.00000  Uiso   1.00
O153   O     0.48114   0.40319   0.00000   0.00000  Uiso   1.00
O154   O     0.51383   0.44594   0.00000   0.00000  Uiso   1.00
O155   O     0.55783   0.48617   0.00000   0.00000  Uiso   1.00
O156   O     0.50377   0.50503   0.00000   0.00000  Uiso   1.00
O157   O     0.48240   0.55406   0.00000   0.00000  Uiso   1.00
O158   O     0.44594   0.50754   0.00000   0.00000  Uiso   1.00
O159   O     0.39439   0.53772   0.00000   0.00000  Uiso   1.00
O160   O     0.39942   0.47737   0.00000   0.00000  Uiso   1.00
O161   O     0.34159   0.46480   0.00000   0.00000  Uiso   1.00
O162   O     0.33656   0.52640   0.00000   0.00000  Uiso   1.00
O163   O     0.37302   0.42205   0.00000   0.00000  Uiso   1.00
O164   O     0.42456   0.40445   0.00000   0.00000  Uiso   1.00
O165   O     0.38433   0.36547   0.00000   0.00000  Uiso   1.00
O166   O     0.36296   0.31644   0.00000   0.00000  Uiso   1.00
O167   O     0.32398   0.36422   0.00000   0.00000  Uiso   1.00
O168   O     0.27747   0.32650   0.00000   0.00000  Uiso   1.00
O169   O     0.31644   0.27621   0.00000   0.00000  Uiso   1.00
O170   O     0.37679   0.25986   0.00000   0.00000  Uiso   1.00
O171   O     0.40571   0.21209   0.00000   0.00000  Uiso   1.00
O172   O     0.43588   0.26238   0.00000   0.00000  Uiso   1.00
O173   O     0.47988   0.23220   0.00000   0.00000  Uiso   1.00
O174   O     0.48491   0.08008   0.00000   0.00000  Uiso   1.00
O175   O     0.54023   0.23346   0.00000   0.00000  Uiso   1.00
O176   O     0.71248   0.10145   0.00000   0.00000  Uiso   1.00
O177   O     0.75774   0.13917   0.00000   0.00000  Uiso   1.00
O178   O     0.62447   0.05367   0.00000   0.00000  Uiso   1.00
O179   O     0.66470   0.20832   0.00000   0.00000  Uiso   1.00
O180   O     0.59555   0.11402   0.00000   0.00000  Uiso   1.00
O181   O     0.65590   0.10019   0.00000   0.00000  Uiso   1.00
O182   O     0.57795   0.02350   0.00000   0.00000  Uiso   1.00
O183   O     0.78791   0.02350   0.00000   0.00000  Uiso   1.00
O184   O     0.76654   0.07882   0.00000   0.00000  Uiso   1.00
O185   O     0.86712   0.13037   0.00000   0.00000  Uiso   1.00
O186   O     0.51509   0.12408   0.00000   0.00000  Uiso   1.00
O187   O     0.63578   0.62698   0.00000   0.00000  Uiso   1.00
O188   O     0.45222   0.12534   0.00000   0.00000  Uiso   1.00
O189   O     0.39439   0.10145   0.00000   0.00000  Uiso   1.00
O190   O     0.40822   0.15677   0.00000   0.00000  Uiso   1.00
O191   O     0.35039   0.18191   0.00000   0.00000  Uiso   1.00
O192   O     0.33530   0.12534   0.00000   0.00000  Uiso   1.00
O193   O     0.29507   0.16934   0.00000   0.00000  Uiso   1.00
O194   O     0.25609   0.21209   0.00000   0.00000  Uiso   1.00
O195   O     0.23472   0.16180   0.00000   0.00000  Uiso   1.00
O196   O     0.21083   0.25609   0.00000   0.00000  Uiso   1.00
O197   O     0.15677   0.23723   0.00000   0.00000  Uiso   1.00
O198   O     0.16808   0.29507   0.00000   0.00000  Uiso   1.00
O199   O     0.10145   0.23598   0.00000   0.00000  Uiso   1.00
O200   O     0.12785   0.18946   0.00000   0.00000  Uiso   1.00
O201   O     0.08385   0.15174   0.00000   0.00000  Uiso   1.00
O202   O     0.12911   0.13414   0.00000   0.00000  Uiso   1.00
O203   O     0.18820   0.12911   0.00000   0.00000  Uiso   1.00
O204   O     0.94004   0.98404   0.00000   0.00000  Uiso   1.00
O205   O     0.23975   0.10145   0.00000   0.00000  Uiso   1.00
O206   O     0.16683   0.02853   0.00000   0.00000  Uiso   1.00
O207   O     0.34913   0.06625   0.00000   0.00000  Uiso   1.00
O208   O     0.04487   0.26615   0.00000   0.00000  Uiso   1.00
O209   O     0.01721   0.32021   0.00000   0.00000  Uiso   1.00
O210   O     0.06625   0.35290   0.00000   0.00000  Uiso   1.00
O211   O     0.01344   0.37553   0.00000   0.00000  Uiso   1.00
O212   O     0.10648   0.39565   0.00000   0.00000  Uiso   1.00
O213   O     0.02727   0.17186   0.00000   0.00000  Uiso   1.00
O214   O     0.04110   0.11025   0.00000   0.00000  Uiso   1.00
O215   O     0.02476   0.05493   0.00000   0.00000  Uiso   1.00
O216   O     0.10774   0.04110   0.00000   0.00000  Uiso   1.00
O217   O     0.05870   0.01093   0.00000   0.00000  Uiso   1.00
O218   O     0.14923   0.08133   0.00000   0.00000  Uiso   1.00
O219   O     0.26992   0.04362   0.00000   0.00000  Uiso   1.00
O220   O     0.31895   0.01470   0.00000   0.00000  Uiso   1.00
O221   O     0.46354   0.02350   0.00000   0.00000  Uiso   1.00
O222   O     0.52137   0.03481   0.00000   0.00000  Uiso   1.00
O223   O     0.83443   0.70493   0.00000   0.00000  Uiso   1.00
O224   O     0.52263   0.92621   0.00000   0.00000  Uiso   1.00
O225   O     0.74391   0.63578   0.00000   0.00000  Uiso   1.00
O226   O     0.60058   0.79043   0.00000   0.00000  Uiso   1.00
O227   O     0.62824   0.74517   0.00000   0.00000  Uiso   1.00
O228   O     0.57041   0.73762   0.00000   0.00000  Uiso   1.00
O229   O     0.52137   0.76905   0.00000   0.00000  Uiso   1.00
O230   O     0.52012   0.70870   0.00000   0.00000  Uiso   1.00
O231   O     0.49120   0.81683   0.00000   0.00000  Uiso   1.00
O232   O     0.44217   0.85329   0.00000   0.00000  Uiso   1.00
O233   O     0.49497   0.87592   0.00000   0.00000  Uiso   1.00
O234   O     0.55406   0.87718   0.00000   0.00000  Uiso   1.00
O235   O     0.46354   0.76654   0.00000   0.00000  Uiso   1.00
O236   O     0.40571   0.73636   0.00000   0.00000  Uiso   1.00
O237   O     0.29381   0.75271   0.00000   0.00000  Uiso   1.00
O238   O     0.34787   0.73511   0.00000   0.00000  Uiso   1.00
O239   O     0.33781   0.79168   0.00000   0.00000  Uiso   1.00
O240   O     0.22340   0.82186   0.00000   0.00000  Uiso   1.00
O241   O     0.17688   0.86083   0.00000   0.00000  Uiso   1.00
O242   O     0.14168   0.81431   0.00000   0.00000  Uiso   1.00
O243   O     0.11905   0.86460   0.00000   0.00000  Uiso   1.00
O244   O     0.07882   0.90107   0.00000   0.00000  Uiso   1.00
O245   O     0.04613   0.84575   0.00000   0.00000  Uiso   1.00
O246   O     0.02601   0.90107   0.00000   0.00000  Uiso   1.00
O247   O     0.13162   0.92118   0.00000   0.00000  Uiso   1.00
O248   O     0.10271   0.97650   0.00000   0.00000  Uiso   1.00
O249   O     0.16180   0.96393   0.00000   0.00000  Uiso   1.00
O250   O     0.21460   0.99159   0.00000   0.00000  Uiso   1.00
O251   O     0.26866   0.98027   0.00000   0.00000  Uiso   1.00
O252   O     0.23598   0.93627   0.00000   0.00000  Uiso   1.00
O253   O     0.37176   0.94884   0.00000   0.00000  Uiso   1.00
O254   O     0.42456   0.97524   0.00000   0.00000  Uiso   1.00
O255   O     0.47863   0.96267   0.00000   0.00000  Uiso   1.00
O256   O     0.53897   0.97524   0.00000   0.00000  Uiso   1.00
O257   O     0.62698   0.98782   0.00000   0.00000  Uiso   1.00
O258   O     0.68482   0.99033   0.00000   0.00000  Uiso   1.00
O259   O     0.60184   0.84323   0.00000   0.00000  Uiso   1.00
O260   O     0.65590   0.82186   0.00000   0.00000  Uiso   1.00
O261   O     0.37679   0.68733   0.00000   0.00000  Uiso   1.00
O262   O     0.31770   0.62698   0.00000   0.00000  Uiso   1.00
O263   O     0.26866   0.65841   0.00000   0.00000  Uiso   1.00
O264   O     0.26489   0.59932   0.00000   0.00000  Uiso   1.00
O265   O     0.23346   0.54149   0.00000   0.00000  Uiso   1.00
O266   O     0.15551   0.56286   0.00000   0.00000  Uiso   1.00
O267   O     0.16934   0.62195   0.00000   0.00000  Uiso   1.00
O268   O     0.11151   0.59932   0.00000   0.00000  Uiso   1.00
O269   O     0.10019   0.65339   0.00000   0.00000  Uiso   1.00
O270   O     0.15174   0.67853   0.00000   0.00000  Uiso   1.00
O271   O     0.10145   0.70996   0.00000   0.00000  Uiso   1.00
O272   O     0.07379   0.76277   0.00000   0.00000  Uiso   1.00
O273   O     0.12785   0.76025   0.00000   0.00000  Uiso   1.00
O274   O     0.02350   0.78917   0.00000   0.00000  Uiso   1.00
O275   O     0.02350   0.73008   0.00000   0.00000  Uiso   1.00
O276   O     0.05493   0.62447   0.00000   0.00000  Uiso   1.00
O277   O     0.02224   0.57795   0.00000   0.00000  Uiso   1.00
O278   O     0.08385   0.47611   0.00000   0.00000  Uiso   1.00
O279   O     0.04362   0.52263   0.00000   0.00000  Uiso   1.00
O280   O     0.02727   0.46480   0.00000   0.00000  Uiso   1.00
O281   O     0.13037   0.44971   0.00000   0.00000  Uiso   1.00
O282   O     0.12534   0.51006   0.00000   0.00000  Uiso   1.00
O283   O     0.18317   0.51257   0.00000   0.00000  Uiso   1.00
O284   O     0.24478   0.70996   0.00000   0.00000  Uiso   1.00
O285   O     0.20706   0.66847   0.00000   0.00000  Uiso   1.00
O286   O     0.24226   0.76780   0.00000   0.00000  Uiso   1.00
O287   O     0.52389   0.59429   0.00000   0.00000  Uiso   1.00
O288   O     0.53520   0.65213   0.00000   0.00000  Uiso   1.00
O289   O     0.47863   0.66973   0.00000   0.00000  Uiso   1.00
O290   O     0.46605   0.61064   0.00000   0.00000  Uiso   1.00
O291   O     0.42582   0.65087   0.00000   0.00000  Uiso   1.00
O292   O     0.37302   0.62950   0.00000   0.00000  Uiso   1.00
O293   O     0.35416   0.57921   0.00000   0.00000  Uiso   1.00
O294   O     0.57795   0.61818   0.00000   0.00000  Uiso   1.00
O295   O     0.73385   0.57544   0.00000   0.00000  Uiso   1.00
O296   O     0.48491   0.28878   0.00000   0.00000  Uiso   1.00
O297   O     0.59429   0.26866   0.00000   0.00000  Uiso   1.00
O298   O     0.65464   0.26741   0.00000   0.00000  Uiso   1.00
O299   O     0.62070   0.16808   0.00000   0.00000  Uiso   1.00
O300   O     0.55783   0.16180   0.00000   0.00000  Uiso   1.00
O301   O     0.50880   0.18191   0.00000   0.00000  Uiso   1.00
O302   O     0.68105   0.15300   0.00000   0.00000  Uiso   1.00
O303   O     0.86335   0.18694   0.00000   0.00000  Uiso   1.00
O304   O     0.81306   0.14923   0.00000   0.00000  Uiso   1.00
O305   O     0.28878   0.49120   0.00000   0.00000  Uiso   1.00
O306   O     0.23220   0.48240   0.00000   0.00000  Uiso   1.00
O307   O     0.26615   0.43714   0.00000   0.00000  Uiso   1.00
O308   O     0.27244   0.38308   0.00000   0.00000  Uiso   1.00
O309   O     0.21586   0.40193   0.00000   0.00000  Uiso   1.00
O310   O     0.15928   0.40193   0.00000   0.00000  Uiso   1.00
O311   O     0.17940   0.35039   0.00000   0.00000  Uiso   1.00
O312   O     0.12282   0.33781   0.00000   0.00000  Uiso   1.00
O313   O     0.25735   0.27118   0.00000   0.00000  Uiso   1.00
O314   O     0.28627   0.89729   0.00000   0.00000  Uiso   1.00
O315   O     0.22969   0.88221   0.00000   0.00000  Uiso   1.00
O316   O     0.97901   0.27118   0.00000   0.00000  Uiso   1.00
O317   O     0.97776   0.21209   0.00000   0.00000  Uiso   1.00
Ti318  Ti    0.15055   0.78436   0.00000   0.00000  Uiso   1.00
Ti319  Ti    0.11535   0.68127   0.00000   0.00000  Uiso   1.00
Ti320  Ti    0.23604   0.67498   0.00000   0.00000  Uiso   1.00
Ti321  Ti    0.12918   0.95283   0.00000   0.00000  Uiso   1.00
Ti322  Ti    0.17821   0.99181   0.00000   0.00000  Uiso   1.00
Ti323  Ti    0.23730   0.96541   0.00000   0.00000  Uiso   1.00
Ti324  Ti    0.31399   0.87991   0.00000   0.00000  Uiso   1.00
Ti325  Ti    0.38817   0.97295   0.00000   0.00000  Uiso   1.00
Ti326  Ti    0.45355   0.98552   0.00000   0.00000  Uiso   1.00
Ti327  Ti    0.51013   0.95535   0.00000   0.00000  Uiso   1.00
Ti328  Ti    0.65848   0.97044   0.00000   0.00000  Uiso   1.00
Ti329  Ti    0.71883   0.98804   0.00000   0.00000  Uiso   1.00
Ti330  Ti    0.85210   0.95409   0.00000   0.00000  Uiso   1.00
Ti331  Ti    0.90616   0.98804   0.00000   0.00000  Uiso   1.00
Ti332  Ti    0.97028   0.97546   0.00000   0.00000  Uiso   1.00
Ti333  Ti    0.78092   0.15825   0.00000   0.00000  Uiso   1.00
Ti334  Ti    0.64591   0.90506   0.00000   0.00000  Uiso   1.00
Ti335  Ti    0.71506   0.65989   0.00000   0.00000  Uiso   1.00
Ti336  Ti    0.71003   0.71521   0.00000   0.00000  Uiso   1.00
Ti337  Ti    0.64591   0.71521   0.00000   0.00000  Uiso   1.00
Ti338  Ti    0.59813   0.75796   0.00000   0.00000  Uiso   1.00
Ti339  Ti    0.58682   0.87488   0.00000   0.00000  Uiso   1.00
Ti340  Ti    0.98411   0.91134   0.00000   0.00000  Uiso   1.00
Ti341  Ti    0.95394   0.85602   0.00000   0.00000  Uiso   1.00
Ti342  Ti    0.88479   0.84722   0.00000   0.00000  Uiso   1.00
Ti343  Ti    0.98537   0.71395   0.00000   0.00000  Uiso   1.00
Ti344  Ti    0.96902   0.65235   0.00000   0.00000  Uiso   1.00
Ti345  Ti    0.84204   0.67372   0.00000   0.00000  Uiso   1.00
Ti346  Ti    0.87724   0.58446   0.00000   0.00000  Uiso   1.00
Ti347  Ti    0.95394   0.51028   0.00000   0.00000  Uiso   1.00
Ti348  Ti    0.90616   0.64355   0.00000   0.00000  Uiso   1.00
Ti349  Ti    0.81564   0.61840   0.00000   0.00000  Uiso   1.00
Ti350  Ti    0.75152   0.60583   0.00000   0.00000  Uiso   1.00
Ti351  Ti    0.73769   0.54548   0.00000   0.00000  Uiso   1.00
Ti352  Ti    0.77918   0.49393   0.00000   0.00000  Uiso   1.00
Ti353  Ti    0.85461   0.40718   0.00000   0.00000  Uiso   1.00
Ti354  Ti    0.83953   0.47005   0.00000   0.00000  Uiso   1.00
Ti355  Ti    0.88479   0.52034   0.00000   0.00000  Uiso   1.00
Ti356  Ti    0.60442   0.60583   0.00000   0.00000  Uiso   1.00
Ti357  Ti    0.62705   0.54674   0.00000   0.00000  Uiso   1.00
Ti358  Ti    0.67860   0.51531   0.00000   0.00000  Uiso   1.00
Ti359  Ti    0.64339   0.46125   0.00000   0.00000  Uiso   1.00
Ti360  Ti    0.58933   0.49016   0.00000   0.00000  Uiso   1.00
Ti361  Ti    0.52521   0.47885   0.00000   0.00000  Uiso   1.00
Ti362  Ti    0.47414   0.52247   0.00000   0.00000  Uiso   1.00
Ti363  Ti    0.48624   0.58949   0.00000   0.00000  Uiso   1.00
Ti364  Ti    0.54281   0.61840   0.00000   0.00000  Uiso   1.00
Ti365  Ti    0.50635   0.67875   0.00000   0.00000  Uiso   1.00
Ti366  Ti    0.45481   0.64229   0.00000   0.00000  Uiso   1.00
Ti367  Ti    0.39069   0.65738   0.00000   0.00000  Uiso   1.00
Ti368  Ti    0.37560   0.72150   0.00000   0.00000  Uiso   1.00
Ti369  Ti    0.49001   0.78185   0.00000   0.00000  Uiso   1.00
Ti370  Ti    0.53150   0.74036   0.00000   0.00000  Uiso   1.00
Ti371  Ti    0.61951   0.81579   0.00000   0.00000  Uiso   1.00
Ti372  Ti    0.67734   0.84848   0.00000   0.00000  Uiso   1.00
Ti373  Ti    0.77792   0.87866   0.00000   0.00000  Uiso   1.00
Ti374  Ti    0.76032   0.75922   0.00000   0.00000  Uiso   1.00
Ti375  Ti    0.82947   0.73784   0.00000   0.00000  Uiso   1.00
Ti376  Ti    0.74146   0.82208   0.00000   0.00000  Uiso   1.00
Ti377  Ti    0.83827   0.88871   0.00000   0.00000  Uiso   1.00
Ti378  Ti    0.21593   0.79065   0.00000   0.00000  Uiso   1.00
Ti379  Ti    0.32531   0.76047   0.00000   0.00000  Uiso   1.00
Ti380  Ti    0.15181   0.53165   0.00000   0.00000  Uiso   1.00
Ti381  Ti    0.01602   0.54297   0.00000   0.00000  Uiso   1.00
Ti382  Ti    0.01979   0.61212   0.00000   0.00000  Uiso   1.00
Ti383  Ti    0.04997   0.49016   0.00000   0.00000  Uiso   1.00
Ti384  Ti    0.13043   0.41347   0.00000   0.00000  Uiso   1.00
Ti385  Ti    0.18324   0.37952   0.00000   0.00000  Uiso   1.00
Ti386  Ti    0.15181   0.32672   0.00000   0.00000  Uiso   1.00
Ti387  Ti    0.51264   0.21734   0.00000   0.00000  Uiso   1.00
Ti388  Ti    0.46486   0.26134   0.00000   0.00000  Uiso   1.00
Ti389  Ti    0.40452   0.24374   0.00000   0.00000  Uiso   1.00
Ti390  Ti    0.35171   0.28272   0.00000   0.00000  Uiso   1.00
Ti391  Ti    0.35297   0.34684   0.00000   0.00000  Uiso   1.00
Ti392  Ti    0.28759   0.35815   0.00000   0.00000  Uiso   1.00
Ti393  Ti    0.28382   0.29403   0.00000   0.00000  Uiso   1.00
Ti394  Ti    0.32531   0.15322   0.00000   0.00000  Uiso   1.00
Ti395  Ti    0.38440   0.18591   0.00000   0.00000  Uiso   1.00
Ti396  Ti    0.35045   0.82334   0.00000   0.00000  Uiso   1.00
Ti397  Ti    0.40326   0.85854   0.00000   0.00000  Uiso   1.00
Ti398  Ti    0.47366   0.84597   0.00000   0.00000  Uiso   1.00
Ti399  Ti    0.34165   0.61212   0.00000   0.00000  Uiso   1.00
Ti400  Ti    0.27879   0.62720   0.00000   0.00000  Uiso   1.00
Ti401  Ti    0.35925   0.54548   0.00000   0.00000  Uiso   1.00
Ti402  Ti    0.40829   0.51154   0.00000   0.00000  Uiso   1.00
Ti403  Ti    0.36806   0.45873   0.00000   0.00000  Uiso   1.00
Ti404  Ti    0.31902   0.49771   0.00000   0.00000  Uiso   1.00
Ti405  Ti    0.26370   0.46753   0.00000   0.00000  Uiso   1.00
Ti406  Ti    0.21593   0.51531   0.00000   0.00000  Uiso   1.00
Ti407  Ti    0.24862   0.40970   0.00000   0.00000  Uiso   1.00
Ti408  Ti    0.24233   0.24248   0.00000   0.00000  Uiso   1.00
Ti409  Ti    0.17695   0.26260   0.00000   0.00000  Uiso   1.00
Ti410  Ti    0.12415   0.22362   0.00000   0.00000  Uiso   1.00
Ti411  Ti    0.11283   0.15825   0.00000   0.00000  Uiso   1.00
Ti412  Ti    0.15558   0.11047   0.00000   0.00000  Uiso   1.00
Ti413  Ti    0.21844   0.12430   0.00000   0.00000  Uiso   1.00
Ti414  Ti    0.26119   0.17836   0.00000   0.00000  Uiso   1.00
Ti415  Ti    0.41583   0.12430   0.00000   0.00000  Uiso   1.00
Ti416  Ti    0.52647   0.15322   0.00000   0.00000  Uiso   1.00
Ti417  Ti    0.65220   0.17459   0.00000   0.00000  Uiso   1.00
Ti418  Ti    0.68111   0.11676   0.00000   0.00000  Uiso   1.00
Ti419  Ti    0.89107   0.10796   0.00000   0.00000  Uiso   1.00
Ti420  Ti    0.85336   0.21734   0.00000   0.00000  Uiso   1.00
Ti421  Ti    0.74397   0.10670   0.00000   0.00000  Uiso   1.00
Ti422  Ti    0.11361   0.47633   0.00000   0.00000  Uiso   1.00
Ti423  Ti    0.09852   0.35815   0.00000   0.00000  Uiso   1.00
Ti424  Ti    0.54485   0.01366   0.00000   0.00000  Uiso   1.00
Ti425  Ti    0.48701   0.04509   0.00000   0.00000  Uiso   1.00
Ti426  Ti    0.28334   0.01618   0.00000   0.00000  Uiso   1.00
Ti427  Ti    0.34746   0.03001   0.00000   0.00000  Uiso   1.00
Ti428  Ti    0.01680   0.28020   0.00000   0.00000  Uiso   1.00
Ti429  Ti    0.14049   0.04761   0.00000   0.00000  Uiso   1.00
Ti430  Ti    0.09272   0.01241   0.00000   0.00000  Uiso   1.00
Ti431  Ti    0.02860   0.02121   0.00000   0.00000  Uiso   1.00
Ti432  Ti    0.01477   0.08533   0.00000   0.00000  Uiso   1.00
Ti433  Ti    0.04620   0.14442   0.00000   0.00000  Uiso   1.00
Ti434  Ti    0.87850   0.31666   0.00000   0.00000  Uiso   1.00
Ti435  Ti    0.90868   0.37701   0.00000   0.00000  Uiso   1.00
Ti436  Ti    0.97280   0.39210   0.00000   0.00000  Uiso   1.00
Ti437  Ti    0.81941   0.35312   0.00000   0.00000  Uiso   1.00
Ti438  Ti    0.75529   0.32798   0.00000   0.00000  Uiso   1.00
Ti439  Ti    0.72134   0.37701   0.00000   0.00000  Uiso   1.00
Ti440  Ti    0.65848   0.39210   0.00000   0.00000  Uiso   1.00
Ti441  Ti    0.61071   0.34809   0.00000   0.00000  Uiso   1.00
Ti442  Ti    0.61951   0.28397   0.00000   0.00000  Uiso   1.00
Ti443  Ti    0.73517   0.26260   0.00000   0.00000  Uiso   1.00
Ti444  Ti    0.59310   0.14693   0.00000   0.00000  Uiso   1.00
Ti445  Ti    0.61071   0.01995   0.00000   0.00000  Uiso   1.00
Ti446  Ti    0.75906   0.04509   0.00000   0.00000  Uiso   1.00
Ti447  Ti    0.86844   0.04635   0.00000   0.00000  Uiso   1.00
Ti448  Ti    0.81438   0.01618   0.00000   0.00000  Uiso   1.00
Ti449  Ti    0.62076   0.08658   0.00000   0.00000  Uiso   1.00
Ti450  Ti    0.48121   0.10921   0.00000   0.00000  Uiso   1.00
Ti451  Ti    0.35925   0.09664   0.00000   0.00000  Uiso   1.00
Ti452  Ti    0.01602   0.82585   0.00000   0.00000  Uiso   1.00
Ti453  Ti    0.03740   0.76299   0.00000   0.00000  Uiso   1.00
Ti454  Ti    0.52395   0.88997   0.00000   0.00000  Uiso   1.00
Ti455  Ti    0.37308   0.91386   0.00000   0.00000  Uiso   1.00
Ti456  Ti    0.14678   0.84471   0.00000   0.00000  Uiso   1.00
Ti457  Ti    0.20838   0.85728   0.00000   0.00000  Uiso   1.00
Ti458  Ti    0.04949   0.87866   0.00000   0.00000  Uiso   1.00
Ti459  Ti    0.10984   0.89374   0.00000   0.00000  Uiso   1.00
Ti460  Ti    0.25819   0.74161   0.00000   0.00000  Uiso   1.00
Ti461  Ti    0.65046   0.65235   0.00000   0.00000  Uiso   1.00
Ti462  Ti    0.51342   0.41221   0.00000   0.00000  Uiso   1.00
Ti463  Ti    0.87802   0.77807   0.00000   0.00000  Uiso   1.00
Ti464  Ti    0.25442   0.90506   0.00000   0.00000  Uiso   1.00
Ti465  Ti    0.39272   0.39587   0.00000   0.00000  Uiso   1.00
Ti466  Ti    0.10104   0.74161   0.00000   0.00000  Uiso   1.00
Ti467  Ti    0.02937   0.34684   0.00000   0.00000  Uiso   1.00
Ti468  Ti    0.48576   0.32421   0.00000   0.00000  Uiso   1.00
Ti469  Ti    0.45558   0.38078   0.00000   0.00000  Uiso   1.00
Ti470  Ti    0.54485   0.35689   0.00000   0.00000  Uiso   1.00
Ti471  Ti    0.67309   0.24123   0.00000   0.00000  Uiso   1.00
Ti472  Ti    0.78750   0.21734   0.00000   0.00000  Uiso   1.00
Ti473  Ti    0.90065   0.25757   0.00000   0.00000  Uiso   1.00
Ti474  Ti    0.96351   0.23997   0.00000   0.00000  Uiso   1.00
Ti475  Ti    0.98866   0.45496   0.00000   0.00000  Uiso   1.00
Ti476  Ti    0.14253   0.59452   0.00000   0.00000  Uiso   1.00
Ti477  Ti    0.17647   0.65361   0.00000   0.00000  Uiso   1.00
Ti478  Ti    0.08721   0.62218   0.00000   0.00000  Uiso   1.00
Ti479  Ti    0.98932   0.17908   0.00000   0.00000  Uiso   1.00
Ti480  Ti    0.95412   0.12376   0.00000   0.00000  Uiso   1.00
Ti481  Ti    0.84599   0.15770   0.00000   0.00000  Uiso   1.00
